@<TRIPOS>MOLECULE
RES
502 521 1 0 1
SMALL
NO_CHARGES
@<TRIPOS>CRYSIN
   35.2216    34.6871    32.1129    90.0000    90.0000    90.0000 1 1
@<TRIPOS>ATOM
       1 C0           4.0390    -0.7093     1.0589 C0            1 RES     
       2 C0           2.8098    -0.6459     0.1576 C0            1 RES     
       3 C0           1.7448     0.2966     0.7321 C0            1 RES     
       4 C0           0.5340     0.3753    -0.2047 C0            1 RES     
       5 C0          -0.5728     1.2687     0.3776 C0            1 RES     
       6 C0          -1.7318     1.4497    -0.6157 C0            1 RES     
       7 C1          -2.4080     0.1405    -0.9915 C1            1 RES     
       8 C1          -3.0682    -0.5706     0.0317 C1            1 RES     
       9 C1          -3.6431    -1.7593    -0.3727 C1            1 RES     
      10 S2          -3.3378    -1.9553    -2.0075 S2            1 RES     
      11 C1          -2.4809    -0.5260    -2.2582 C1            1 RES     
      12 H3           4.7825    -1.4097     0.6231 H3            1 RES     
      13 H3           4.5048     0.2955     1.1444 H3            1 RES     
      14 H3           3.7594    -1.0710     2.0712 H3            1 RES     
      15 H3           3.1236    -0.2926    -0.8491 H3            1 RES     
      16 H3           2.3826    -1.6680     0.0597 H3            1 RES     
      17 H3           2.1762     1.3150     0.8548 H3            1 RES     
      18 H3           1.4238    -0.0789     1.7286 H3            1 RES     
      19 H3           0.1265    -0.6463    -0.3659 H3            1 RES     
      20 H3           0.8669     0.7866    -1.1836 H3            1 RES     
      21 H3          -0.1509     2.2748     0.5973 H3            1 RES     
      22 H3          -0.9403     0.8370     1.3334 H3            1 RES     
      23 H3          -2.4928     2.1287    -0.1723 H3            1 RES     
      24 H3          -1.3072     1.9889    -1.4541 H3            1 RES     
      25 H4          -3.1244    -0.2216     1.0547 H4            1 RES     
      26 H           -4.1907    -2.4404     0.2652 H             1 RES     
      27 C0           5.7649     1.0508    -4.1909 C0            1 RES     
      28 C0           4.4181     0.7279    -4.8286 C0            1 RES     
      29 C0           3.3948     1.8331    -4.5456 C0            1 RES     
      30 C0           2.0641     1.5239    -5.2351 C0            1 RES     
      31 C0           1.0280     2.6247    -4.9633 C0            1 RES     
      32 C0          -0.2681     2.3766    -5.7569 C0            1 RES     
      33 C1          -0.9480     1.0749    -5.3525 C1            1 RES     
      34 C1          -1.3787     1.0144    -4.0214 C1            1 RES     
      35 C1          -1.9485    -0.1752    -3.6183 C1            1 RES     
      36 S2          -1.9406    -1.1850    -4.9857 S2            1 RES     
      37 C1          -1.2095    -0.1223    -6.0911 C1            1 RES     
      38 H3           6.4845     0.2343    -4.4102 H3            1 RES     
      39 H3           6.1670     1.9997    -4.6061 H3            1 RES     
      40 H3           5.6581     1.1489    -3.0897 H3            1 RES     
      41 H3           4.5613     0.6218    -5.9266 H3            1 RES     
      42 H3           4.0449    -0.2378    -4.4224 H3            1 RES     
      43 H3           3.7836     2.8015    -4.9314 H3            1 RES     
      44 H3           3.2370     1.9204    -3.4477 H3            1 RES     
      45 H3           1.6758     0.5488    -4.8665 H3            1 RES     
      46 H3           2.2370     1.4478    -6.3317 H3            1 RES     
      47 H3           1.4425     3.6053    -5.2857 H3            1 RES     
      48 H3           0.8274     2.6882    -3.8723 H3            1 RES     
      49 H3          -0.9765     3.2142    -5.5734 H3            1 RES     
      50 H3           0.0333     2.4598    -6.7884 H3            1 RES     
      51 H4          -1.2554     1.8717    -3.4089 H4            1 RES     
      52 C0           6.5361     0.5091    -9.9156 C0            1 RES     
      53 C0           5.1443    -0.0824   -10.1152 C0            1 RES     
      54 C0           4.0742     1.0153   -10.1394 C0            1 RES     
      55 C0           2.6878     0.4146   -10.3921 C0            1 RES     
      56 C0           1.6042     1.5040   -10.4163 C0            1 RES     
      57 C0           0.2324     0.9214   -10.8103 C0            1 RES     
      58 C1          -0.2789    -0.0970    -9.7953 C1            1 RES     
      59 C1          -0.5223     0.4193    -8.5186 C1            1 RES     
      60 C1          -0.9221    -0.4679    -7.5403 C1            1 RES     
      61 S2          -1.0234    -1.9802    -8.3265 S2            1 RES     
      62 C1          -0.5413    -1.4978    -9.8996 C1            1 RES     
      63 H3           7.2877    -0.3080    -9.8970 H3            1 RES     
      64 H3           6.7830     1.1988   -10.7511 H3            1 RES     
      65 H3           6.5872     1.0644    -8.9550 H3            1 RES     
      66 H3           5.1311    -0.6414   -11.0767 H3            1 RES     
      67 H3           4.9293    -0.7922    -9.2866 H3            1 RES     
      68 H3           4.3078     1.7371   -10.9534 H3            1 RES     
      69 H3           4.0771     1.5566    -9.1675 H3            1 RES     
      70 H3           2.4523    -0.3247    -9.5952 H3            1 RES     
      71 H3           2.7011    -0.1104   -11.3733 H3            1 RES     
      72 H3           1.8771     2.2696   -11.1758 H3            1 RES     
      73 H3           1.5610     2.0119    -9.4290 H3            1 RES     
      74 H3          -0.5099     1.7469   -10.8798 H3            1 RES     
      75 H3           0.3845     0.5757   -11.8173 H3            1 RES     
      76 H4          -0.4020     1.4587    -8.3823 H4            1 RES     
      77 C0           6.5034    -2.3992   -14.9589 C0            1 RES     
      78 C0           5.1495    -3.0367   -14.6613 C0            1 RES     
      79 C0           4.0002    -2.0630   -14.9501 C0            1 RES     
      80 C0           2.6449    -2.7293   -14.6860 C0            1 RES     
      81 C0           1.4822    -1.7591   -14.9490 C0            1 RES     
      82 C0           0.1172    -2.4657   -14.8219 C0            1 RES     
      83 C1          -0.1482    -2.9878   -13.4090 C1            1 RES     
      84 C1          -0.2481    -2.0000   -12.4241 C1            1 RES     
      85 C1          -0.4294    -2.4128   -11.1133 C1            1 RES     
      86 S2          -0.5161    -4.1155   -11.2039 S2            1 RES     
      87 C1          -0.3063    -4.3109   -12.8983 C1            1 RES     
      88 H3           7.3134    -3.1238   -14.7305 H3            1 RES     
      89 H3           6.5695    -2.1205   -16.0323 H3            1 RES     
      90 H3           6.6502    -1.4919   -14.3352 H3            1 RES     
      91 H3           5.0394    -3.9471   -15.2908 H3            1 RES     
      92 H3           5.1195    -3.3369   -13.5910 H3            1 RES     
      93 H3           4.0460    -1.7460   -16.0160 H3            1 RES     
      94 H3           4.1080    -1.1642   -14.3038 H3            1 RES     
      95 H3           2.6011    -3.0764   -13.6304 H3            1 RES     
      96 H3           2.5468    -3.6120   -15.3566 H3            1 RES     
      97 H3           1.5661    -1.3700   -15.9887 H3            1 RES     
      98 H3           1.5528    -0.8912   -14.2591 H3            1 RES     
      99 H3          -0.6908    -1.7492   -15.0865 H3            1 RES     
     100 H3           0.1326    -3.1899   -15.6166 H3            1 RES     
     101 H4          -0.2001    -0.9996   -12.7477 H4            1 RES     
     102 C0           5.9966    -7.1746   -18.2458 C0            1 RES     
     103 C0           4.7508    -7.6349   -17.4950 C0            1 RES     
     104 C0           3.5036    -6.8764   -17.9657 C0            1 RES     
     105 C0           2.2554    -7.3812   -17.2325 C0            1 RES     
     106 C0           0.9955    -6.6220   -17.6780 C0            1 RES     
     107 C0          -0.2770    -7.2248   -17.0490 C0            1 RES     
     108 C1          -0.2989    -7.1120   -15.5233 C1            1 RES     
     109 C1          -0.3299    -5.8048   -15.0232 C1            1 RES     
     110 C1          -0.2963    -5.6406   -13.6449 C1            1 RES     
     111 S2          -0.2687    -7.2279   -13.0211 S2            1 RES     
     112 C1          -0.2857    -8.1034   -14.4984 C1            1 RES     
     113 H3           6.8809    -7.7358   -17.8764 H3            1 RES     
     114 H3           5.8832    -7.3685   -19.3339 H3            1 RES     
     115 H3           6.1688    -6.0895   -18.0828 H3            1 RES     
     116 H3           4.6153    -8.7254   -17.6675 H3            1 RES     
     117 H3           4.9003    -7.4616   -16.4068 H3            1 RES     
     118 H3           3.3695    -7.0328   -19.0594 H3            1 RES     
     119 H3           3.6381    -5.7892   -17.7729 H3            1 RES     
     120 H3           2.3912    -7.2541   -16.1364 H3            1 RES     
     121 H3           2.1286    -8.4644   -17.4541 H3            1 RES     
     122 H3           0.8984    -6.7048   -18.7839 H3            1 RES     
     123 H3           1.0969    -5.5439   -17.4297 H3            1 RES     
     124 H3          -1.1676    -6.6944   -17.4514 H3            1 RES     
     125 H3          -0.3178    -8.2168   -17.4634 H3            1 RES     
     126 H4          -0.3977    -5.0300   -15.7317 H4            1 RES     
     127 C0           5.3683   -12.9002   -19.1212 C0            1 RES     
     128 C0           4.2813   -13.0067   -18.0560 C0            1 RES     
     129 C0           2.9246   -12.5364   -18.5951 C0            1 RES     
     130 C0           1.8357   -12.6897   -17.5270 C0            1 RES     
     131 C0           0.4718   -12.2000   -18.0392 C0            1 RES     
     132 C0          -0.6488   -12.4873   -17.0194 C0            1 RES     
     133 C1          -0.4544   -11.7423   -15.6975 C1            1 RES     
     134 C1          -0.5097   -10.3474   -15.7855 C1            1 RES     
     135 C1          -0.2860    -9.6209   -14.6241 C1            1 RES     
     136 S2          -0.0472   -10.7974   -13.4137 S2            1 RES     
     137 C1          -0.2156   -12.2113   -14.3711 C1            1 RES     
     138 H3           6.3377   -13.2376   -18.6972 H3            1 RES     
     139 H3           5.1185   -13.5448   -19.9909 H3            1 RES     
     140 H3           5.4748   -11.8488   -19.4629 H3            1 RES     
     141 H3           4.2091   -14.0667   -17.7269 H3            1 RES     
     142 H3           4.5690   -12.3808   -17.1830 H3            1 RES     
     143 H3           2.6494   -13.1481   -19.4833 H3            1 RES     
     144 H3           3.0003   -11.4704   -18.9034 H3            1 RES     
     145 H3           2.1175   -12.1067   -16.6230 H3            1 RES     
     146 H3           1.7604   -13.7650   -17.2499 H3            1 RES     
     147 H3           0.2230   -12.7441   -18.9780 H3            1 RES     
     148 H3           0.5275   -11.1176   -18.2829 H3            1 RES     
     149 H3          -1.6249   -12.1795   -17.4544 H3            1 RES     
     150 H3          -0.6784   -13.5617   -16.9733 H3            1 RES     
     151 H4          -0.7402    -9.9416   -16.7299 H4            1 RES     
     152 C0           5.0413   -18.4683   -17.4830 C0            1 RES     
     153 C0           4.1396   -18.1257   -16.3008 C0            1 RES     
     154 C0           2.6863   -17.9243   -16.7480 C0            1 RES     
     155 C0           1.7859   -17.6258   -15.5434 C0            1 RES     
     156 C0           0.3268   -17.4048   -15.9731 C0            1 RES     
     157 C0          -0.6031   -17.2494   -14.7526 C0            1 RES     
     158 C1          -0.2766   -16.0158   -13.9089 C1            1 RES     
     159 C1          -0.4514   -14.7886   -14.5563 C1            1 RES     
     160 C1          -0.1183   -13.6392   -13.8540 C1            1 RES     
     161 S2           0.3832   -14.1935   -12.3221 S2            1 RES     
     162 C1           0.1868   -15.8802   -12.5663 C1            1 RES     
     163 H3           6.0854   -18.5990   -17.1278 H3            1 RES     
     164 H3           4.7079   -19.4154   -17.9588 H3            1 RES     
     165 H3           5.0200   -17.6525   -18.2364 H3            1 RES     
     166 H3           4.1944   -18.9547   -15.5613 H3            1 RES     
     167 H3           4.5114   -17.1942   -15.8209 H3            1 RES     
     168 H3           2.3249   -18.8497   -17.2497 H3            1 RES     
     169 H3           2.6366   -17.0813   -17.4720 H3            1 RES     
     170 H3           2.1552   -16.7176   -15.0190 H3            1 RES     
     171 H3           1.8352   -18.4886   -14.8423 H3            1 RES     
     172 H3          -0.0173   -18.2936   -16.5484 H3            1 RES     
     173 H3           0.2612   -16.5233   -16.6461 H3            1 RES     
     174 H3          -1.6542   -17.1630   -15.1057 H3            1 RES     
     175 H3          -0.5384   -18.2049   -14.2625 H3            1 RES     
     176 H4          -0.8462   -14.8189   -15.5316 H4            1 RES     
     177 C0           5.4054   -22.8020   -13.6215 C0            1 RES     
     178 C0           4.6573   -22.0030   -12.5588 C0            1 RES     
     179 C0           3.1435   -22.0298   -12.8039 C0            1 RES     
     180 C0           2.4046   -21.2603   -11.7029 C0            1 RES     
     181 C0           0.8860   -21.2589   -11.9392 C0            1 RES     
     182 C0           0.1337   -20.6133   -10.7576 C0            1 RES     
     183 C1           0.4818   -19.1358   -10.5664 C1            1 RES     
     184 C1           0.1219   -18.2968   -11.6253 C1            1 RES     
     185 C1           0.4657   -16.9562   -11.5276 C1            1 RES     
     186 S2           1.2246   -16.8091   -10.0085 S2            1 RES     
     187 C1           1.1229   -18.4432    -9.4963 C1            1 RES     
     188 H3           6.4967   -22.7552   -13.4209 H3            1 RES     
     189 H3           5.0861   -23.8659   -13.5980 H3            1 RES     
     190 H3           5.2097   -22.3828   -14.6313 H3            1 RES     
     191 H3           4.8848   -22.4393   -11.5613 H3            1 RES     
     192 H3           5.0164   -20.9508   -12.5784 H3            1 RES     
     193 H3           2.7904   -23.0852   -12.8076 H3            1 RES     
     194 H3           2.9218   -21.5740   -13.7941 H3            1 RES     
     195 H3           2.7713   -20.2112   -11.6721 H3            1 RES     
     196 H3           2.6236   -21.7448   -10.7252 H3            1 RES     
     197 H3           0.5350   -22.3114   -12.0294 H3            1 RES     
     198 H3           0.6537   -20.7446   -12.8961 H3            1 RES     
     199 H3          -0.9610   -20.6948   -10.9357 H3            1 RES     
     200 H3           0.3460   -21.2740    -9.9353 H3            1 RES     
     201 H4          -0.4069   -18.7384   -12.4217 H4            1 RES     
     202 C0           6.6271   -25.1236    -8.4179 C0            1 RES     
     203 C0           5.9815   -23.9583    -7.6745 C0            1 RES     
     204 C0           4.4544   -24.0965    -7.6394 C0            1 RES     
     205 C0           3.8261   -22.9432    -6.8488 C0            1 RES     
     206 C0           2.2931   -23.0509    -6.8184 C0            1 RES     
     207 C0           1.6725   -21.9722    -5.9066 C0            1 RES     
     208 C1           1.9416   -20.5524    -6.4051 C1            1 RES     
     209 C1           1.3707   -20.2376    -7.6416 C1            1 RES     
     210 C1           1.6292   -18.9801    -8.1666 C1            1 RES     
     211 S2           2.5914   -18.2051    -6.9929 S2            1 RES     
     212 C1           2.6831   -19.4721    -5.8394 C1            1 RES     
     213 H3           7.7293   -24.9882    -8.4340 H3            1 RES     
     214 H3           6.3955   -26.0818    -7.9055 H3            1 RES     
     215 H3           6.2576   -25.1688    -9.4643 H3            1 RES     
     216 H3           6.3814   -23.9346    -6.6368 H3            1 RES     
     217 H3           6.2550   -23.0086    -8.1841 H3            1 RES     
     218 H3           4.1828   -25.0594    -7.1521 H3            1 RES     
     219 H3           4.0603   -24.0971    -8.6796 H3            1 RES     
     220 H3           4.1163   -21.9747    -7.3114 H3            1 RES     
     221 H3           4.2169   -22.9733    -5.8072 H3            1 RES     
     222 H3           2.0094   -24.0461    -6.4087 H3            1 RES     
     223 H3           1.8908   -22.9860    -7.8520 H3            1 RES     
     224 H3           0.5716   -22.1248    -5.8601 H3            1 RES     
     225 H3           2.0416   -22.2241    -4.9282 H3            1 RES     
     226 H4           0.7612   -20.9739    -8.0841 H4            1 RES     
     227 C0           8.7905   -25.0358    -3.0093 C0            1 RES     
     228 C0           8.1730   -23.6708    -2.7220 C0            1 RES     
     229 C0           6.6844   -23.7944    -2.3762 C0            1 RES     
     230 C0           6.0897   -22.4196    -2.0478 C0            1 RES     
     231 C0           4.5910   -22.5165    -1.7244 C0            1 RES     
     232 C0           4.0267   -21.1599    -1.2561 C0            1 RES     
     233 C1           4.1084   -20.0782    -2.3346 C1            1 RES     
     234 C1           3.3422   -20.3197    -3.4796 C1            1 RES     
     235 C1           3.4197   -19.3962    -4.5089 C1            1 RES     
     236 S2           4.4783   -18.1887    -3.9373 S2            1 RES     
     237 C1           4.8364   -18.8524    -2.3967 C1            1 RES     
     238 H3           9.8636   -24.9108    -3.2666 H3            1 RES     
     239 H3           8.7147   -25.6883    -2.1133 H3            1 RES     
     240 H3           8.2733   -25.5236    -3.8627 H3            1 RES     
     241 H3           8.7201   -23.2052    -1.8726 H3            1 RES     
     242 H3           8.2912   -23.0250    -3.6194 H3            1 RES     
     243 H3           6.5650   -24.4602    -1.4921 H3            1 RES     
     244 H3           6.1414   -24.2413    -3.2377 H3            1 RES     
     245 H3           6.2336   -21.7368    -2.9132 H3            1 RES     
     246 H3           6.6305   -22.0013    -1.1688 H3            1 RES     
     247 H3           4.4476   -23.2474    -0.8964 H3            1 RES     
     248 H3           4.0391   -22.8994    -2.6091 H3            1 RES     
     249 H3           2.9602   -21.2887    -0.9701 H3            1 RES     
     250 H3           4.5526   -20.9706    -0.3365 H3            1 RES     
     251 H4           2.7373   -21.1825    -3.4719 H4            1 RES     
     252 C0          11.6905   -22.6670     1.4407 C0            1 RES     
     253 C0          11.0268   -21.3079     1.2404 C0            1 RES     
     254 C0           9.6138   -21.2850     1.8363 C0            1 RES     
     255 C0           8.9756   -19.9020     1.6624 C0            1 RES     
     256 C0           7.5495   -19.8656     2.2344 C0            1 RES     
     257 C0           6.9591   -18.4418     2.1854 C0            1 RES     
     258 C1           6.8000   -17.9141     0.7585 C1            1 RES     
     259 C1           5.8945   -18.6213    -0.0391 C1            1 RES     
     260 C1           5.7504   -18.2170    -1.3587 C1            1 RES     
     261 S2           6.7860   -16.8731    -1.5195 S2            1 RES     
     262 C1           7.4162   -16.8229     0.0754 C1            1 RES     
     263 H3          12.7058   -22.6541     0.9908 H3            1 RES     
     264 H3          11.7858   -22.8924     2.5244 H3            1 RES     
     265 H3          11.0935   -23.4658     0.9514 H3            1 RES     
     266 H3          11.6544   -20.5305     1.7293 H3            1 RES     
     267 H3          10.9724   -21.0899     0.1514 H3            1 RES     
     268 H3           9.6683   -21.5252     2.9216 H3            1 RES     
     269 H3           8.9881   -22.0527     1.3300 H3            1 RES     
     270 H3           8.9435   -19.6413     0.5820 H3            1 RES     
     271 H3           9.6038   -19.1520     2.1928 H3            1 RES     
     272 H3           7.5813   -20.1831     3.3009 H3            1 RES     
     273 H3           6.9061   -20.5881     1.6881 H3            1 RES     
     274 H3           5.9579   -18.4466     2.6695 H3            1 RES     
     275 H3           7.5969   -17.8795     2.8446 H3            1 RES     
     276 H4           5.3646   -19.4042     0.4238 H4            1 RES     
     277 C0          15.0362   -18.6081     3.9492 C0            1 RES     
     278 C0          14.2426   -17.4690     3.3175 C0            1 RES     
     279 C0          12.9375   -17.2083     4.0804 C0            1 RES     
     280 C0          12.1727   -16.0345     3.4577 C0            1 RES     
     281 C0          10.8491   -15.7723     4.1935 C0            1 RES     
     282 C0          10.1493   -14.5065     3.6582 C0            1 RES     
     283 C1           9.7431   -14.6283     2.1884 C1            1 RES     
     284 C1           8.7877   -15.6142     1.9163 C1            1 RES     
     285 C1           8.4211   -15.8026     0.5906 C1            1 RES     
     286 S2           9.3155   -14.6420    -0.2799 S2            1 RES     
     287 C1          10.1666   -13.9209     1.0247 C1            1 RES     
     288 H3          15.9677   -18.7776     3.3688 H3            1 RES     
     289 H3          15.3117   -18.3511     4.9944 H3            1 RES     
     290 H3          14.4390   -19.5445     3.9472 H3            1 RES     
     291 H3          14.8715   -16.5515     3.3230 H3            1 RES     
     292 H3          14.0074   -17.7339     2.2633 H3            1 RES     
     293 H3          13.1731   -16.9658     5.1405 H3            1 RES     
     294 H3          12.3062   -18.1236     4.0534 H3            1 RES     
     295 H3          11.9597   -16.2555     2.3892 H3            1 RES     
     296 H3          12.8117   -15.1252     3.5145 H3            1 RES     
     297 H3          11.0632   -15.6098     5.2734 H3            1 RES     
     298 H3          10.1898   -16.6627     4.1116 H3            1 RES     
     299 H3           9.2336   -14.3152     4.2594 H3            1 RES     
     300 H3          10.8316   -13.7139     3.9097 H3            1 RES     
     301 H4           8.3939   -16.1341     2.7412 H4            1 RES     
     302 C0          18.3866   -13.8530     3.9754 C0            1 RES     
     303 C0          17.4215   -13.0946     3.0693 C0            1 RES     
     304 C0          16.2275   -12.5464     3.8607 C0            1 RES     
     305 C0          15.2914   -11.7510     2.9435 C0            1 RES     
     306 C0          14.0749   -11.2113     3.7124 C0            1 RES     
     307 C0          13.2109   -10.2923     2.8250 C0            1 RES     
     308 C1          12.6040   -11.0223     1.6227 C1            1 RES     
     309 C1          11.6956   -12.0384     1.9467 C1            1 RES     
     310 C1          11.1560   -12.7690     0.8978 C1            1 RES     
     311 S2          11.8221   -12.0765    -0.5086 S2            1 RES     
     312 C1          12.7971   -10.8688     0.2218 C1            1 RES     
     313 H3          19.2324   -14.2444     3.3713 H3            1 RES     
     314 H3          18.7928   -13.1757     4.7568 H3            1 RES     
     315 H3          17.8707   -14.7074     4.4628 H3            1 RES     
     316 H3          17.9713   -12.2560     2.5881 H3            1 RES     
     317 H3          17.0547   -13.7825     2.2764 H3            1 RES     
     318 H3          16.5977   -11.8770     4.6690 H3            1 RES     
     319 H3          15.6716   -13.3922     4.3221 H3            1 RES     
     320 H3          14.9402   -12.4038     2.1149 H3            1 RES     
     321 H3          15.8605   -10.8982     2.5107 H3            1 RES     
     322 H3          14.4331   -10.6083     4.5765 H3            1 RES     
     323 H3          13.4793   -12.0575     4.1171 H3            1 RES     
     324 H3          12.3821    -9.8716     3.4348 H3            1 RES     
     325 H3          13.8623    -9.4634     2.6093 H3            1 RES     
     326 H4          11.4677   -12.1656     2.9640 H4            1 RES     
     327 C0          21.3318    -9.4966     1.5061 C0            1 RES     
     328 C0          20.1930    -9.2014     0.5346 C0            1 RES     
     329 C0          19.0853    -8.3812     1.2073 C0            1 RES     
     330 C0          17.9704    -8.0552     0.2068 C0            1 RES     
     331 C0          16.8395    -7.2514     0.8677 C0            1 RES     
     332 C0          15.7914    -6.7977    -0.1690 C0            1 RES     
     333 C1          15.0717    -7.9698    -0.8388 C1            1 RES     
     334 C1          14.2995    -8.7629     0.0163 C1            1 RES     
     335 C1          13.6671    -9.8696    -0.5301 C1            1 RES     
     336 S2          14.0684    -9.8287    -2.1859 S2            1 RES     
     337 C1          15.0461    -8.4195    -2.1940 C1            1 RES     
     338 H3          22.1109   -10.0987     0.9926 H3            1 RES     
     339 H3          21.7916    -8.5485     1.8585 H3            1 RES     
     340 H3          20.9568   -10.0693     2.3808 H3            1 RES     
     341 H3          20.6035    -8.6397    -0.3332 H3            1 RES     
     342 H3          19.7709   -10.1633     0.1698 H3            1 RES     
     343 H3          19.5149    -7.4299     1.5932 H3            1 RES     
     344 H3          18.6664    -8.9580     2.0612 H3            1 RES     
     345 H3          17.5545    -8.9994    -0.2075 H3            1 RES     
     346 H3          18.4059    -7.4600    -0.6267 H3            1 RES     
     347 H3          17.2723    -6.3375     1.3335 H3            1 RES     
     348 H3          16.3736    -7.8523     1.6778 H3            1 RES     
     349 H3          15.0306    -6.1639     0.3377 H3            1 RES     
     350 H3          16.3428    -6.1338    -0.8112 H3            1 RES     
     351 H4          14.2315    -8.4495     1.0204 H4            1 RES     
     352 C0          23.5406    -6.5631    -3.0285 C0            1 RES     
     353 C0          22.2529    -6.7053    -3.8344 C0            1 RES     
     354 C0          21.1963    -5.6903    -3.3806 C0            1 RES     
     355 C0          19.9243    -5.8191    -4.2273 C0            1 RES     
     356 C0          18.8426    -4.8267    -3.7736 C0            1 RES     
     357 C0          17.6197    -4.8579    -4.7125 C0            1 RES     
     358 C1          16.9084    -6.2133    -4.7146 C1            1 RES     
     359 C1          16.3315    -6.5807    -3.4954 C1            1 RES     
     360 C1          15.7178    -7.8235    -3.4226 C1            1 RES     
     361 S2          15.8714    -8.4767    -4.9894 S2            1 RES     
     362 C1          16.7247    -7.1905    -5.7395 C1            1 RES     
     363 H3          24.2796    -7.3166    -3.3742 H3            1 RES     
     364 H3          23.9739    -5.5502    -3.1718 H3            1 RES     
     365 H3          23.3421    -6.7274    -1.9481 H3            1 RES     
     366 H3          22.4880    -6.5487    -4.9101 H3            1 RES     
     367 H3          21.8564    -7.7357    -3.7019 H3            1 RES     
     368 H3          21.6032    -4.6605    -3.4922 H3            1 RES     
     369 H3          20.9531    -5.8657    -2.3094 H3            1 RES     
     370 H3          19.5277    -6.8545    -4.1452 H3            1 RES     
     371 H3          20.1847    -5.6188    -5.2905 H3            1 RES     
     372 H3          19.2650    -3.7961    -3.8006 H3            1 RES     
     373 H3          18.5509    -5.0413    -2.7229 H3            1 RES     
     374 H3          16.8923    -4.0815    -4.3890 H3            1 RES     
     375 H3          18.0120    -4.5101    -5.6511 H3            1 RES     
     376 H4          16.3821    -5.8767    -2.7142 H4            1 RES     
     377 C0          24.8547    -5.7820    -8.6256 C0            1 RES     
     378 C0          23.4783    -6.2663    -9.0715 C0            1 RES     
     379 C0          22.4244    -5.1625    -8.9212 C0            1 RES     
     380 C0          21.0569    -5.6483    -9.4153 C0            1 RES     
     381 C0          19.9821    -4.5630    -9.2458 C0            1 RES     
     382 C0          18.6427    -4.9923    -9.8773 C0            1 RES     
     383 C1          18.0372    -6.2291    -9.2093 C1            1 RES     
     384 C1          17.6756    -6.0591    -7.8699 C1            1 RES     
     385 C1          17.1658    -7.1586    -7.1955 C1            1 RES     
     386 S2          17.1306    -8.4043    -8.3600 S2            1 RES     
     387 C1          17.7714    -7.5431    -9.6993 C1            1 RES     
     388 H3          25.5917    -6.6054    -8.7361 H3            1 RES     
     389 H3          25.1828    -4.9262    -9.2535 H3            1 RES     
     390 H3          24.8288    -5.4665    -7.5609 H3            1 RES     
     391 H3          23.5415    -6.5850   -10.1352 H3            1 RES     
     392 H3          23.1858    -7.1429    -8.4529 H3            1 RES     
     393 H3          22.7314    -4.2763    -9.5204 H3            1 RES     
     394 H3          22.3530    -4.8650    -7.8517 H3            1 RES     
     395 H3          20.7550    -6.5538    -8.8450 H3            1 RES     
     396 H3          21.1441    -5.9162   -10.4920 H3            1 RES     
     397 H3          20.3187    -3.6378    -9.7653 H3            1 RES     
     398 H3          19.8611    -4.3180    -8.1690 H3            1 RES     
     399 H3          17.9147    -4.1563    -9.7887 H3            1 RES     
     400 H3          18.8710    -5.0629   -10.9250 H3            1 RES     
     401 H4          17.7960    -5.0950    -7.4653 H4            1 RES     
     402 C0          25.2631    -7.4559   -14.2080 C0            1 RES     
     403 C0          23.8723    -8.0833   -14.1889 C0            1 RES     
     404 C0          22.7802    -7.0152   -14.3231 C0            1 RES     
     405 C0          21.3888    -7.6584   -14.3454 C0            1 RES     
     406 C0          20.2846    -6.5940   -14.4507 C0            1 RES     
     407 C0          18.8943    -7.2359   -14.6236 C0            1 RES     
     408 C1          18.4801    -8.0898   -13.4241 C1            1 RES     
     409 C1          18.3127    -7.3874   -12.2286 C1            1 RES     
     410 C1          17.9854    -8.1141   -11.0942 C1            1 RES     
     411 S2          17.8599    -9.7277   -11.6329 S2            1 RES     
     412 C1          18.2327    -9.4878   -13.2919 C1            1 RES     
     413 H3          26.0309    -8.2506   -14.0981 H3            1 RES     
     414 H3          25.4337    -6.9288   -15.1711 H3            1 RES     
     415 H3          25.3743    -6.7340   -13.3711 H3            1 RES     
     416 H3          23.7973    -8.8076   -15.0296 H3            1 RES     
     417 H3          23.7368    -8.6322   -13.2314 H3            1 RES     
     418 H3          22.9323    -6.4508   -15.2702 H3            1 RES     
     419 H3          22.8515    -6.3072   -13.4682 H3            1 RES     
     420 H3          21.2379    -8.2523   -13.4175 H3            1 RES     
     421 H3          21.3282    -8.3426   -15.2212 H3            1 RES     
     422 H3          20.4775    -5.9623   -15.3468 H3            1 RES     
     423 H3          20.3146    -5.9319   -13.5593 H3            1 RES     
     424 H3          18.1357    -6.4345   -14.7596 H3            1 RES     
     425 H3          18.9631    -7.7259   -15.5763 H3            1 RES     
     426 H4          18.4263    -6.3439   -12.2771 H4            1 RES     
     427 C0          24.9711   -11.3092   -18.5417 C0            1 RES     
     428 C0          23.6399   -11.8691   -18.0484 C0            1 RES     
     429 C0          22.4762   -10.9529   -18.4453 C0            1 RES     
     430 C0          21.1353   -11.5354   -17.9848 C0            1 RES     
     431 C0          19.9712   -10.6002   -18.3547 C0            1 RES     
     432 C0          18.6065   -11.2359   -18.0317 C0            1 RES     
     433 C1          18.4218   -11.5042   -16.5420 C1            1 RES     
     434 C1          18.3852   -10.3747   -15.7240 C1            1 RES     
     435 C1          18.2753   -10.5746   -14.3552 C1            1 RES     
     436 S2          18.1803   -12.2653   -14.1690 S2            1 RES     
     437 C1          18.2895   -12.7189   -15.8209 C1            1 RES     
     438 H3          25.7971   -11.9835   -18.2316 H3            1 RES     
     439 H3          24.9700   -11.2364   -19.6504 H3            1 RES     
     440 H3          25.1515   -10.3018   -18.1097 H3            1 RES     
     441 H3          23.4930   -12.8798   -18.4887 H3            1 RES     
     442 H3          23.6756   -11.9635   -16.9410 H3            1 RES     
     443 H3          22.4585   -10.8405   -19.5523 H3            1 RES     
     444 H3          22.6252    -9.9515   -17.9849 H3            1 RES     
     445 H3          21.1521   -11.6843   -16.8829 H3            1 RES     
     446 H3          20.9891   -12.5237   -18.4756 H3            1 RES     
     447 H3          19.9996   -10.4054   -19.4499 H3            1 RES     
     448 H3          20.0922    -9.6265   -17.8339 H3            1 RES     
     449 H3          17.7924   -10.5587   -18.3695 H3            1 RES     
     450 H3          18.5625   -12.0874   -18.6837 H3            1 RES     
     451 H4          18.4245    -9.4461   -16.2119 H4            1 RES     
     452 C0          24.3397   -16.6117   -20.8207 C0            1 RES     
     453 C0          23.1395   -16.9096   -19.9257 C0            1 RES     
     454 C0          21.8644   -16.2610   -20.4791 C0            1 RES     
     455 C0          20.6498   -16.5942   -19.6041 C0            1 RES     
     456 C0          19.3727   -15.9349   -20.1554 C0            1 RES     
     457 C0          18.1207   -16.3655   -19.3681 C0            1 RES     
     458 C1          18.1699   -15.9213   -17.9166 C1            1 RES     
     459 C1          18.1503   -14.5469   -17.6719 C1            1 RES     
     460 C1          18.2598   -14.1388   -16.3446 C1            1 RES     
     461 S2          18.3441   -15.5712   -15.4454 S2            1 RES     
     462 C1          18.2559   -16.6882   -16.7364 C1            1 RES     
     463 H3          25.2496   -17.0852   -20.3952 H3            1 RES     
     464 H3          24.1706   -17.0220   -21.8394 H3            1 RES     
     465 H3          24.5077   -15.5160   -20.8918 H3            1 RES     
     466 H3          23.0064   -18.0122   -19.8651 H3            1 RES     
     467 H3          23.3433   -16.5179   -18.9052 H3            1 RES     
     468 H3          21.6806   -16.6392   -21.5092 H3            1 RES     
     469 H3          22.0021   -15.1580   -20.5207 H3            1 RES     
     470 H3          20.8320   -16.2408   -18.5654 H3            1 RES     
     471 H3          20.5161   -17.6989   -19.5860 H3            1 RES     
     472 H3          19.2323   -16.2543   -21.2116 H3            1 RES     
     473 H3          19.4862   -14.8294   -20.1461 H3            1 RES     
     474 H3          17.2145   -15.9277   -19.8394 H3            1 RES     
     475 H3          18.0512   -17.4306   -19.5199 H3            1 RES     
     476 H4          18.0375   -13.9241   -18.5139 H4            1 RES     
     477 C0          23.7553   -22.3869   -20.5914 C0            1 RES     
     478 C0          22.7938   -22.2930   -19.4099 C0            1 RES     
     479 C0          21.3543   -22.0291   -19.8718 C0            1 RES     
     480 C0          20.4076   -21.9466   -18.6650 C0            1 RES     
     481 C0          18.9490   -21.7461   -19.1013 C0            1 RES     
     482 C0          17.9849   -21.7002   -17.8968 C0            1 RES     
     483 C1          18.2055   -20.4909   -17.0174 C1            1 RES     
     484 C1          18.0506   -19.1885   -17.5005 C1            1 RES     
     485 C1          18.3011   -18.1772   -16.5624 C1            1 RES     
     486 S2          18.6793   -18.9552   -15.1136 S2            1 RES     
     487 C1          18.5586   -20.5406   -15.6772 C1            1 RES     
     488 H3          24.7820   -22.5876   -20.2176 H3            1 RES     
     489 H3          23.4575   -23.2157   -21.2686 H3            1 RES     
     490 H3          23.7642   -21.4331   -21.1602 H3            1 RES     
     491 H3          22.8309   -23.2512   -18.8465 H3            1 RES     
     492 H3          23.1286   -21.4718   -18.7395 H3            1 RES     
     493 H3          21.0312   -22.8574   -20.5408 H3            1 RES     
     494 H3          21.3138   -21.0738   -20.4411 H3            1 RES     
     495 H3          20.7240   -21.1041   -18.0129 H3            1 RES     
     496 H3          20.4751   -22.8944   -18.0873 H3            1 RES     
     497 H3          18.6554   -22.6011   -19.7495 H3            1 RES     
     498 H3          18.8551   -20.8171   -19.7057 H3            1 RES     
     499 H3          16.9425   -21.6576   -18.2814 H3            1 RES     
     500 H3          18.0933   -22.6376   -17.3099 H3            1 RES     
     501 H4          17.7450   -19.0709   -18.5104 H4            1 RES     
     502 H           18.7219   -21.4397   -15.0982 H             1 RES     
@<TRIPOS>BOND
       1        1        2 1
       2        1       12 1
       3        1       13 1
       4        1       14 1
       5        2        3 1
       6        2       15 1
       7        2       16 1
       8        3        4 1
       9        3       17 1
      10        3       18 1
      11        4        5 1
      12        4       19 1
      13        4       20 1
      14        5        6 1
      15        5       21 1
      16        5       22 1
      17        6        7 1
      18        6       23 1
      19        6       24 1
      20        7        8 1
      21        7       11 1
      22        8        9 1
      23        8       25 1
      24        9       10 1
      25        9       26 1
      26       10       11 1
      27       11       35 1
      28       27       28 1
      29       27       38 1
      30       27       39 1
      31       27       40 1
      32       28       29 1
      33       28       41 1
      34       28       42 1
      35       29       30 1
      36       29       43 1
      37       29       44 1
      38       30       31 1
      39       30       45 1
      40       30       46 1
      41       31       32 1
      42       31       47 1
      43       31       48 1
      44       32       33 1
      45       32       49 1
      46       32       50 1
      47       33       34 1
      48       33       37 1
      49       34       35 1
      50       34       51 1
      51       35       36 1
      52       36       37 1
      53       37       60 1
      54       52       53 1
      55       52       63 1
      56       52       64 1
      57       52       65 1
      58       53       54 1
      59       53       66 1
      60       53       67 1
      61       54       55 1
      62       54       68 1
      63       54       69 1
      64       55       56 1
      65       55       70 1
      66       55       71 1
      67       56       57 1
      68       56       72 1
      69       56       73 1
      70       57       58 1
      71       57       74 1
      72       57       75 1
      73       58       59 1
      74       58       62 1
      75       59       60 1
      76       59       76 1
      77       60       61 1
      78       61       62 1
      79       62       85 1
      80       77       78 1
      81       77       88 1
      82       77       89 1
      83       77       90 1
      84       78       79 1
      85       78       91 1
      86       78       92 1
      87       79       80 1
      88       79       93 1
      89       79       94 1
      90       80       81 1
      91       80       95 1
      92       80       96 1
      93       81       82 1
      94       81       97 1
      95       81       98 1
      96       82       83 1
      97       82       99 1
      98       82      100 1
      99       83       84 1
     100       83       87 1
     101       84       85 1
     102       84      101 1
     103       85       86 1
     104       86       87 1
     105       87      110 1
     106      102      103 1
     107      102      113 1
     108      102      114 1
     109      102      115 1
     110      103      104 1
     111      103      116 1
     112      103      117 1
     113      104      105 1
     114      104      118 1
     115      104      119 1
     116      105      106 1
     117      105      120 1
     118      105      121 1
     119      106      107 1
     120      106      122 1
     121      106      123 1
     122      107      108 1
     123      107      124 1
     124      107      125 1
     125      108      109 1
     126      108      112 1
     127      109      110 1
     128      109      126 1
     129      110      111 1
     130      111      112 1
     131      112      135 1
     132      127      128 1
     133      127      138 1
     134      127      139 1
     135      127      140 1
     136      128      129 1
     137      128      141 1
     138      128      142 1
     139      129      130 1
     140      129      143 1
     141      129      144 1
     142      130      131 1
     143      130      145 1
     144      130      146 1
     145      131      132 1
     146      131      147 1
     147      131      148 1
     148      132      133 1
     149      132      149 1
     150      132      150 1
     151      133      134 1
     152      133      137 1
     153      134      135 1
     154      134      151 1
     155      135      136 1
     156      136      137 1
     157      137      160 1
     158      152      153 1
     159      152      163 1
     160      152      164 1
     161      152      165 1
     162      153      154 1
     163      153      166 1
     164      153      167 1
     165      154      155 1
     166      154      168 1
     167      154      169 1
     168      155      156 1
     169      155      170 1
     170      155      171 1
     171      156      157 1
     172      156      172 1
     173      156      173 1
     174      157      158 1
     175      157      174 1
     176      157      175 1
     177      158      159 1
     178      158      162 1
     179      159      160 1
     180      159      176 1
     181      160      161 1
     182      161      162 1
     183      162      185 1
     184      177      178 1
     185      177      188 1
     186      177      189 1
     187      177      190 1
     188      178      179 1
     189      178      191 1
     190      178      192 1
     191      179      180 1
     192      179      193 1
     193      179      194 1
     194      180      181 1
     195      180      195 1
     196      180      196 1
     197      181      182 1
     198      181      197 1
     199      181      198 1
     200      182      183 1
     201      182      199 1
     202      182      200 1
     203      183      184 1
     204      183      187 1
     205      184      185 1
     206      184      201 1
     207      185      186 1
     208      186      187 1
     209      187      210 1
     210      202      203 1
     211      202      213 1
     212      202      214 1
     213      202      215 1
     214      203      204 1
     215      203      216 1
     216      203      217 1
     217      204      205 1
     218      204      218 1
     219      204      219 1
     220      205      206 1
     221      205      220 1
     222      205      221 1
     223      206      207 1
     224      206      222 1
     225      206      223 1
     226      207      208 1
     227      207      224 1
     228      207      225 1
     229      208      209 1
     230      208      212 1
     231      209      210 1
     232      209      226 1
     233      210      211 1
     234      211      212 1
     235      212      235 1
     236      227      228 1
     237      227      238 1
     238      227      239 1
     239      227      240 1
     240      228      229 1
     241      228      241 1
     242      228      242 1
     243      229      230 1
     244      229      243 1
     245      229      244 1
     246      230      231 1
     247      230      245 1
     248      230      246 1
     249      231      232 1
     250      231      247 1
     251      231      248 1
     252      232      233 1
     253      232      249 1
     254      232      250 1
     255      233      234 1
     256      233      237 1
     257      234      235 1
     258      234      251 1
     259      235      236 1
     260      236      237 1
     261      237      260 1
     262      252      253 1
     263      252      263 1
     264      252      264 1
     265      252      265 1
     266      253      254 1
     267      253      266 1
     268      253      267 1
     269      254      255 1
     270      254      268 1
     271      254      269 1
     272      255      256 1
     273      255      270 1
     274      255      271 1
     275      256      257 1
     276      256      272 1
     277      256      273 1
     278      257      258 1
     279      257      274 1
     280      257      275 1
     281      258      259 1
     282      258      262 1
     283      259      260 1
     284      259      276 1
     285      260      261 1
     286      261      262 1
     287      262      285 1
     288      277      278 1
     289      277      288 1
     290      277      289 1
     291      277      290 1
     292      278      279 1
     293      278      291 1
     294      278      292 1
     295      279      280 1
     296      279      293 1
     297      279      294 1
     298      280      281 1
     299      280      295 1
     300      280      296 1
     301      281      282 1
     302      281      297 1
     303      281      298 1
     304      282      283 1
     305      282      299 1
     306      282      300 1
     307      283      284 1
     308      283      287 1
     309      284      285 1
     310      284      301 1
     311      285      286 1
     312      286      287 1
     313      287      310 1
     314      302      303 1
     315      302      313 1
     316      302      314 1
     317      302      315 1
     318      303      304 1
     319      303      316 1
     320      303      317 1
     321      304      305 1
     322      304      318 1
     323      304      319 1
     324      305      306 1
     325      305      320 1
     326      305      321 1
     327      306      307 1
     328      306      322 1
     329      306      323 1
     330      307      308 1
     331      307      324 1
     332      307      325 1
     333      308      309 1
     334      308      312 1
     335      309      310 1
     336      309      326 1
     337      310      311 1
     338      311      312 1
     339      312      335 1
     340      327      328 1
     341      327      338 1
     342      327      339 1
     343      327      340 1
     344      328      329 1
     345      328      341 1
     346      328      342 1
     347      329      330 1
     348      329      343 1
     349      329      344 1
     350      330      331 1
     351      330      345 1
     352      330      346 1
     353      331      332 1
     354      331      347 1
     355      331      348 1
     356      332      333 1
     357      332      349 1
     358      332      350 1
     359      333      334 1
     360      333      337 1
     361      334      335 1
     362      334      351 1
     363      335      336 1
     364      336      337 1
     365      337      360 1
     366      352      353 1
     367      352      363 1
     368      352      364 1
     369      352      365 1
     370      353      354 1
     371      353      366 1
     372      353      367 1
     373      354      355 1
     374      354      368 1
     375      354      369 1
     376      355      356 1
     377      355      370 1
     378      355      371 1
     379      356      357 1
     380      356      372 1
     381      356      373 1
     382      357      358 1
     383      357      374 1
     384      357      375 1
     385      358      359 1
     386      358      362 1
     387      359      360 1
     388      359      376 1
     389      360      361 1
     390      361      362 1
     391      362      385 1
     392      377      378 1
     393      377      388 1
     394      377      389 1
     395      377      390 1
     396      378      379 1
     397      378      391 1
     398      378      392 1
     399      379      380 1
     400      379      393 1
     401      379      394 1
     402      380      381 1
     403      380      395 1
     404      380      396 1
     405      381      382 1
     406      381      397 1
     407      381      398 1
     408      382      383 1
     409      382      399 1
     410      382      400 1
     411      383      384 1
     412      383      387 1
     413      384      385 1
     414      384      401 1
     415      385      386 1
     416      386      387 1
     417      387      410 1
     418      402      403 1
     419      402      413 1
     420      402      414 1
     421      402      415 1
     422      403      404 1
     423      403      416 1
     424      403      417 1
     425      404      405 1
     426      404      418 1
     427      404      419 1
     428      405      406 1
     429      405      420 1
     430      405      421 1
     431      406      407 1
     432      406      422 1
     433      406      423 1
     434      407      408 1
     435      407      424 1
     436      407      425 1
     437      408      409 1
     438      408      412 1
     439      409      410 1
     440      409      426 1
     441      410      411 1
     442      411      412 1
     443      412      435 1
     444      427      428 1
     445      427      438 1
     446      427      439 1
     447      427      440 1
     448      428      429 1
     449      428      441 1
     450      428      442 1
     451      429      430 1
     452      429      443 1
     453      429      444 1
     454      430      431 1
     455      430      445 1
     456      430      446 1
     457      431      432 1
     458      431      447 1
     459      431      448 1
     460      432      433 1
     461      432      449 1
     462      432      450 1
     463      433      434 1
     464      433      437 1
     465      434      435 1
     466      434      451 1
     467      435      436 1
     468      436      437 1
     469      437      460 1
     470      452      453 1
     471      452      463 1
     472      452      464 1
     473      452      465 1
     474      453      454 1
     475      453      466 1
     476      453      467 1
     477      454      455 1
     478      454      468 1
     479      454      469 1
     480      455      456 1
     481      455      470 1
     482      455      471 1
     483      456      457 1
     484      456      472 1
     485      456      473 1
     486      457      458 1
     487      457      474 1
     488      457      475 1
     489      458      459 1
     490      458      462 1
     491      459      460 1
     492      459      476 1
     493      460      461 1
     494      461      462 1
     495      462      485 1
     496      477      478 1
     497      477      488 1
     498      477      489 1
     499      477      490 1
     500      478      479 1
     501      478      491 1
     502      478      492 1
     503      479      480 1
     504      479      493 1
     505      479      494 1
     506      480      481 1
     507      480      495 1
     508      480      496 1
     509      481      482 1
     510      481      497 1
     511      481      498 1
     512      482      483 1
     513      482      499 1
     514      482      500 1
     515      483      484 1
     516      483      487 1
     517      484      485 1
     518      484      501 1
     519      485      486 1
     520      486      487 1
     521      487      502 1
@<TRIPOS>SUBSTRUCTURE
       1 RES             1 RESIDUE    0 **** ROOT      0
