@<TRIPOS>MOLECULE
RES
502 521 1 0 1
SMALL
NO_CHARGES
@<TRIPOS>CRYSIN
   35.5165    34.7119    31.7996    90.0000    90.0000    90.0000 1 1
@<TRIPOS>ATOM
       1 C0           4.0598    -0.6889     1.0548 C0            1 RES     
       2 C0           2.8328    -0.6329     0.1503 C0            1 RES     
       3 C0           1.7504     0.2849     0.7326 C0            1 RES     
       4 C0           0.5438     0.3575    -0.2098 C0            1 RES     
       5 C0          -0.5795     1.2291     0.3737 C0            1 RES     
       6 C0          -1.7359     1.4010    -0.6276 C0            1 RES     
       7 C1          -2.3900     0.0820    -1.0085 C1            1 RES     
       8 C1          -3.0602    -0.6325     0.0040 C1            1 RES     
       9 C1          -3.6169    -1.8282    -0.4070 C1            1 RES     
      10 S2          -3.2790    -2.0243    -2.0338 S2            1 RES     
      11 C1          -2.4300    -0.5873    -2.2718 C1            1 RES     
      12 H3           4.8160    -1.3709     0.6116 H3            1 RES     
      13 H3           4.5091     0.3220     1.1556 H3            1 RES     
      14 H3           3.7831    -1.0692     2.0611 H3            1 RES     
      15 H3           3.1447    -0.2611    -0.8503 H3            1 RES     
      16 H3           2.4224    -1.6603     0.0367 H3            1 RES     
      17 H3           2.1653     1.3081     0.8712 H3            1 RES     
      18 H3           1.4301    -0.1089     1.7223 H3            1 RES     
      19 H3           0.1523    -0.6683    -0.3847 H3            1 RES     
      20 H3           0.8767     0.7837    -1.1824 H3            1 RES     
      21 H3          -0.1736     2.2403     0.6035 H3            1 RES     
      22 H3          -0.9469     0.7849     1.3236 H3            1 RES     
      23 H3          -2.5082     2.0677    -0.1867 H3            1 RES     
      24 H3          -1.3158     1.9483    -1.4609 H3            1 RES     
      25 H4          -3.1398    -0.2807     1.0255 H4            1 RES     
      26 H5          -4.1698    -2.5119     0.2223 H5            1 RES     
      27 C0           5.8614     0.9398    -4.1621 C0            1 RES     
      28 C0           4.5159     0.6307    -4.8091 C0            1 RES     
      29 C0           3.4981     1.7407    -4.5247 C0            1 RES     
      30 C0           2.1697     1.4412    -5.2228 C0            1 RES     
      31 C0           1.1356     2.5441    -4.9527 C0            1 RES     
      32 C0          -0.1570     2.2977    -5.7519 C0            1 RES     
      33 C1          -0.8417     0.9996    -5.3462 C1            1 RES     
      34 C1          -1.2924     0.9479    -4.0201 C1            1 RES     
      35 C1          -1.8728    -0.2395    -3.6209 C1            1 RES     
      36 S2          -1.8414    -1.2579    -4.9795 S2            1 RES     
      37 C1          -1.0922    -0.2028    -6.0777 C1            1 RES     
      38 H3           6.5760     0.1194    -4.3831 H3            1 RES     
      39 H3           6.2725     1.8884    -4.5691 H3            1 RES     
      40 H3           5.7493     1.0313    -3.0609 H3            1 RES     
      41 H3           4.6643     0.5305    -5.9069 H3            1 RES     
      42 H3           4.1341    -0.3351    -4.4111 H3            1 RES     
      43 H3           3.8940     2.7090    -4.9029 H3            1 RES     
      44 H3           3.3345     1.8225    -3.4271 H3            1 RES     
      45 H3           1.7760     0.4659    -4.8609 H3            1 RES     
      46 H3           2.3487     1.3693    -6.3187 H3            1 RES     
      47 H3           1.5537     3.5239    -5.2725 H3            1 RES     
      48 H3           0.9291     2.6065    -3.8626 H3            1 RES     
      49 H3          -0.8644     3.1375    -5.5772 H3            1 RES     
      50 H3           0.1495     2.3766    -6.7828 H3            1 RES     
      51 H4          -1.1748     1.8083    -3.4111 H4            1 RES     
      52 C0           6.7004     0.2987    -9.8675 C0            1 RES     
      53 C0           5.3010    -0.2715   -10.0745 C0            1 RES     
      54 C0           4.2466     0.8414   -10.0991 C0            1 RES     
      55 C0           2.8541     0.2594   -10.3604 C0            1 RES     
      56 C0           1.7823     1.3610   -10.3879 C0            1 RES     
      57 C0           0.4066     0.7897   -10.7839 C0            1 RES     
      58 C1          -0.1111    -0.2200    -9.7628 C1            1 RES     
      59 C1          -0.3705     0.3135    -8.4977 C1            1 RES     
      60 C1          -0.7824    -0.5633    -7.5147 C1            1 RES     
      61 S2          -0.8700    -2.0857    -8.2791 S2            1 RES     
      62 C1          -0.3675    -1.6230    -9.8500 C1            1 RES     
      63 H3           7.4397    -0.5296    -9.8496 H3            1 RES     
      64 H3           6.9602     0.9879   -10.6994 H3            1 RES     
      65 H3           6.7560     0.8493    -8.9045 H3            1 RES     
      66 H3           5.2836    -0.8268   -11.0381 H3            1 RES     
      67 H3           5.0725    -0.9814    -9.2495 H3            1 RES     
      68 H3           4.4934     1.5630   -10.9092 H3            1 RES     
      69 H3           4.2521     1.3787    -9.1250 H3            1 RES     
      70 H3           2.6066    -0.4786    -9.5660 H3            1 RES     
      71 H3           2.8654    -0.2638   -11.3424 H3            1 RES     
      72 H3           2.0652     2.1235   -11.1469 H3            1 RES     
      73 H3           1.7411     1.8689    -9.4005 H3            1 RES     
      74 H3          -0.3301     1.6197   -10.8580 H3            1 RES     
      75 H3           0.5518     0.4433   -11.7917 H3            1 RES     
      76 H4          -0.2543     1.3543    -8.3722 H4            1 RES     
      77 C0           6.7706    -2.7388   -14.8008 C0            1 RES     
      78 C0           5.3989    -3.3412   -14.5134 C0            1 RES     
      79 C0           4.2767    -2.3393   -14.8119 C0            1 RES     
      80 C0           2.9049    -2.9759   -14.5635 C0            1 RES     
      81 C0           1.7649    -1.9846   -14.8458 C0            1 RES     
      82 C0           0.3880    -2.6694   -14.7352 C0            1 RES     
      83 C1           0.0944    -3.1714   -13.3203 C1            1 RES     
      84 C1          -0.0188    -2.1686   -12.3543 C1            1 RES     
      85 C1          -0.2325    -2.5587   -11.0430 C1            1 RES     
      86 S2          -0.3232    -4.2622   -11.1050 S2            1 RES     
      87 C1          -0.0796    -4.4850   -12.7908 C1            1 RES     
      88 H3           7.5595    -3.4846   -14.5673 H3            1 RES     
      89 H3           6.8512    -2.4618   -15.8738 H3            1 RES     
      90 H3           6.9363    -1.8358   -14.1757 H3            1 RES     
      91 H3           5.2710    -4.2484   -15.1443 H3            1 RES     
      92 H3           5.3523    -3.6411   -13.4437 H3            1 RES     
      93 H3           4.3408    -2.0224   -15.8768 H3            1 RES     
      94 H3           4.3982    -1.4440   -14.1630 H3            1 RES     
      95 H3           2.8403    -3.3198   -13.5081 H3            1 RES     
      96 H3           2.7977    -3.8580   -15.2338 H3            1 RES     
      97 H3           1.8699    -1.6014   -15.8856 H3            1 RES     
      98 H3           1.8411    -1.1154   -14.1578 H3            1 RES     
      99 H3          -0.4062    -1.9446   -15.0189 H3            1 RES     
     100 H3           0.4036    -3.3991   -15.5249 H3            1 RES     
     101 H4           0.0449    -1.1747   -12.6913 H4            1 RES     
     102 C0           6.2957    -7.5569   -17.9872 C0            1 RES     
     103 C0           5.0250    -7.9849   -17.2595 C0            1 RES     
     104 C0           3.8066    -7.1932   -17.7514 C0            1 RES     
     105 C0           2.5328    -7.6662   -17.0416 C0            1 RES     
     106 C0           1.3004    -6.8745   -17.5076 C0            1 RES     
     107 C0           0.0041    -7.4446   -16.8967 C0            1 RES     
     108 C1          -0.0350    -7.3174   -15.3722 C1            1 RES     
     109 C1          -0.0700    -6.0060   -14.8899 C1            1 RES     
     110 C1          -0.0582    -5.8246   -13.5145 C1            1 RES     
     111 S2          -0.0404    -7.4029   -12.8686 S2            1 RES     
     112 C1          -0.0363    -8.2962   -14.3354 C1            1 RES     
     113 H3           7.1582    -8.1412   -17.6023 H3            1 RES     
     114 H3           6.1970    -7.7475   -19.0773 H3            1 RES     
     115 H3           6.4932    -6.4768   -17.8203 H3            1 RES     
     116 H3           4.8641    -9.0714   -17.4357 H3            1 RES     
     117 H3           5.1594    -7.8166   -16.1686 H3            1 RES     
     118 H3           3.6882    -7.3446   -18.8476 H3            1 RES     
     119 H3           3.9661    -6.1103   -17.5540 H3            1 RES     
     120 H3           2.6534    -7.5443   -15.9430 H3            1 RES     
     121 H3           2.3821    -8.7456   -17.2669 H3            1 RES     
     122 H3           1.2183    -6.9560   -18.6146 H3            1 RES     
     123 H3           1.4250    -5.7992   -17.2571 H3            1 RES     
     124 H3          -0.8693    -6.8975   -17.3144 H3            1 RES     
     125 H3          -0.0596    -8.4357   -17.3090 H3            1 RES     
     126 H4          -0.1274    -5.2401   -15.6078 H4            1 RES     
     127 C0           5.6997   -13.2410   -18.7910 C0            1 RES     
     128 C0           4.5884   -13.3243   -17.7491 C0            1 RES     
     129 C0           3.2545   -12.8208   -18.3144 C0            1 RES     
     130 C0           2.1414   -12.9525   -17.2687 C0            1 RES     
     131 C0           0.7970   -12.4403   -17.8093 C0            1 RES     
     132 C0          -0.3465   -12.7061   -16.8106 C0            1 RES     
     133 C1          -0.1742   -11.9467   -15.4939 C1            1 RES     
     134 C1          -0.2255   -10.5536   -15.5991 C1            1 RES     
     135 C1          -0.0300    -9.8139   -14.4424 C1            1 RES     
     136 S2           0.1859   -10.9733   -13.2125 S2            1 RES     
     137 C1           0.0381   -12.3984   -14.1574 C1            1 RES     
     138 H3           6.6512   -13.6039   -18.3480 H3            1 RES     
     139 H3           5.4523   -13.8763   -19.6683 H3            1 RES     
     140 H3           5.8392   -12.1913   -19.1261 H3            1 RES     
     141 H3           4.4842   -14.3834   -17.4256 H3            1 RES     
     142 H3           4.8726   -12.7084   -16.8679 H3            1 RES     
     143 H3           2.9839   -13.4240   -19.2098 H3            1 RES     
     144 H3           3.3602   -11.7559   -18.6180 H3            1 RES     
     145 H3           2.4153   -12.3746   -16.3592 H3            1 RES     
     146 H3           2.0404   -14.0261   -16.9932 H3            1 RES     
     147 H3           0.5579   -12.9841   -18.7505 H3            1 RES     
     148 H3           0.8753   -11.3595   -18.0557 H3            1 RES     
     149 H3          -1.3110   -12.3933   -17.2680 H3            1 RES     
     150 H3          -0.3911   -13.7797   -16.7538 H3            1 RES     
     151 H4          -0.4336   -10.1598   -16.5524 H4            1 RES     
     152 C0           5.3577   -18.7516   -17.0115 C0            1 RES     
     153 C0           4.4188   -18.3934   -15.8637 C0            1 RES     
     154 C0           2.9854   -18.1729   -16.3632 C0            1 RES     
     155 C0           2.0491   -17.8559   -15.1917 C0            1 RES     
     156 C0           0.6085   -17.6163   -15.6711 C0            1 RES     
     157 C0          -0.3550   -17.4342   -14.4804 C0            1 RES     
     158 C1          -0.0346   -16.1918   -13.6476 C1            1 RES     
     159 C1          -0.1946   -14.9743   -14.3139 C1            1 RES     
     160 C1           0.1273   -13.8169   -13.6215 C1            1 RES     
     161 S2           0.6048   -14.3494   -12.0747 S2            1 RES     
     162 C1           0.4100   -16.0379   -12.3008 C1            1 RES     
     163 H3           6.3862   -18.8959   -16.6182 H3            1 RES     
     164 H3           5.0285   -19.6952   -17.4971 H3            1 RES     
     165 H3           5.3751   -17.9374   -17.7667 H3            1 RES     
     166 H3           4.4351   -19.2210   -15.1206 H3            1 RES     
     167 H3           4.7863   -17.4658   -15.3727 H3            1 RES     
     168 H3           2.6282   -19.0948   -16.8739 H3            1 RES     
     169 H3           2.9735   -17.3319   -17.0912 H3            1 RES     
     170 H3           2.4142   -16.9507   -14.6595 H3            1 RES     
     171 H3           2.0620   -18.7156   -14.4852 H3            1 RES     
     172 H3           0.2691   -18.5045   -16.2491 H3            1 RES     
     173 H3           0.5776   -16.7391   -16.3520 H3            1 RES     
     174 H3          -1.3947   -17.3389   -14.8626 H3            1 RES     
     175 H3          -0.3216   -18.3845   -13.9770 H3            1 RES     
     176 H4          -0.5741   -15.0160   -15.2952 H4            1 RES     
     177 C0           5.6746   -23.0155   -13.0583 C0            1 RES     
     178 C0           4.8926   -22.2028   -12.0311 C0            1 RES     
     179 C0           3.3909   -22.2071   -12.3431 C0            1 RES     
     180 C0           2.6164   -21.4239   -11.2774 C0            1 RES     
     181 C0           1.1089   -21.4055   -11.5762 C0            1 RES     
     182 C0           0.3196   -20.7394   -10.4321 C0            1 RES     
     183 C1           0.6748   -19.2622   -10.2545 C1            1 RES     
     184 C1           0.3346   -18.4387   -11.3312 C1            1 RES     
     185 C1           0.6751   -17.0981   -11.2451 C1            1 RES     
     186 S2           1.4129   -16.9291    -9.7187 S2            1 RES     
     187 C1           1.3024   -18.5556    -9.1865 C1            1 RES     
     188 H3           6.7564   -22.9860   -12.8089 H3            1 RES     
     189 H3           5.3374   -24.0741   -13.0480 H3            1 RES     
     190 H3           5.5311   -22.5949   -14.0762 H3            1 RES     
     191 H3           5.0687   -22.6408   -11.0239 H3            1 RES     
     192 H3           5.2687   -21.1564   -12.0359 H3            1 RES     
     193 H3           3.0223   -23.2569   -12.3604 H3            1 RES     
     194 H3           3.2197   -21.7501   -13.3427 H3            1 RES     
     195 H3           2.9955   -20.3795   -11.2353 H3            1 RES     
     196 H3           2.7878   -21.9063   -10.2890 H3            1 RES     
     197 H3           0.7482   -22.4543   -11.6713 H3            1 RES     
     198 H3           0.9220   -20.8961   -12.5461 H3            1 RES     
     199 H3          -0.7690   -20.8119   -10.6468 H3            1 RES     
     200 H3           0.4883   -21.3889    -9.5919 H3            1 RES     
     201 H4          -0.1807   -18.8904   -12.1301 H4            1 RES     
     202 C0           6.8415   -25.2328    -7.8489 C0            1 RES     
     203 C0           6.1769   -24.0600    -7.1346 C0            1 RES     
     204 C0           4.6486   -24.1849    -7.1617 C0            1 RES     
     205 C0           3.9979   -23.0222    -6.4034 C0            1 RES     
     206 C0           2.4642   -23.1240    -6.4275 C0            1 RES     
     207 C0           1.8164   -22.0356    -5.5484 C0            1 RES     
     208 C1           2.0912   -20.6210    -6.0612 C1            1 RES     
     209 C1           1.5380   -20.3265    -7.3102 C1            1 RES     
     210 C1           1.7945   -19.0735    -7.8458 C1            1 RES     
     211 S2           2.7383   -18.2788    -6.6703 S2            1 RES     
     212 C1           2.8211   -19.5310    -5.5015 C1            1 RES     
     213 H3           7.9446   -25.1087    -7.8187 H3            1 RES     
     214 H3           6.5785   -26.1880    -7.3461 H3            1 RES     
     215 H3           6.5158   -25.2754    -8.9100 H3            1 RES     
     216 H3           6.5340   -24.0378    -6.0813 H3            1 RES     
     217 H3           6.4800   -23.1140    -7.6341 H3            1 RES     
     218 H3           4.3499   -25.1430    -6.6809 H3            1 RES     
     219 H3           4.2965   -24.1878    -8.2169 H3            1 RES     
     220 H3           4.3100   -22.0586    -6.8618 H3            1 RES     
     221 H3           4.3500   -23.0468    -5.3480 H3            1 RES     
     222 H3           2.1637   -24.1140    -6.0175 H3            1 RES     
     223 H3           2.0979   -23.0681    -7.4751 H3            1 RES     
     224 H3           0.7154   -22.1901    -5.5279 H3            1 RES     
     225 H3           2.1567   -22.2731    -4.5561 H3            1 RES     
     226 H4           0.9417   -21.0717    -7.7531 H4            1 RES     
     227 C0           8.9444   -25.0199    -2.4352 C0            1 RES     
     228 C0           8.3106   -23.6559    -2.1796 C0            1 RES     
     229 C0           6.8082   -23.7835    -1.8984 C0            1 RES     
     230 C0           6.1961   -22.4105    -1.5988 C0            1 RES     
     231 C0           4.6871   -22.5149    -1.3257 C0            1 RES     
     232 C0           4.1024   -21.1581    -0.8850 C0            1 RES     
     233 C1           4.2017   -20.0908    -1.9759 C1            1 RES     
     234 C1           3.4509   -20.3475    -3.1255 C1            1 RES     
     235 C1           3.5406   -19.4370    -4.1669 C1            1 RES     
     236 S2           4.5927   -18.2228    -3.5991 S2            1 RES     
     237 C1           4.9317   -18.8671    -2.0467 C1            1 RES     
     238 H3          10.0278   -24.8925    -2.6431 H3            1 RES     
     239 H3           8.8292   -25.6705    -1.5420 H3            1 RES     
     240 H3           8.4681   -25.5110    -3.3102 H3            1 RES     
     241 H3           8.8181   -23.1869    -1.3079 H3            1 RES     
     242 H3           8.4666   -23.0117    -3.0724 H3            1 RES     
     243 H3           6.6545   -24.4480    -1.0190 H3            1 RES     
     244 H3           6.3040   -24.2346    -2.7814 H3            1 RES     
     245 H3           6.3672   -21.7308    -2.4620 H3            1 RES     
     246 H3           6.7021   -21.9853    -0.7033 H3            1 RES     
     247 H3           4.5210   -23.2402    -0.4979 H3            1 RES     
     248 H3           4.1661   -22.9060    -2.2257 H3            1 RES     
     249 H3           3.0294   -21.2897    -0.6233 H3            1 RES     
     250 H3           4.6005   -20.9566     0.0469 H3            1 RES     
     251 H4           2.8462   -21.2088    -3.1147 H4            1 RES     
     252 C0          11.7983   -22.5630     1.9599 C0            1 RES     
     253 C0          11.1194   -21.2154     1.7359 C0            1 RES     
     254 C0           9.6873   -21.2148     2.2849 C0            1 RES     
     255 C0           9.0353   -19.8414     2.0903 C0            1 RES     
     256 C0           7.5940   -19.8219     2.6235 C0            1 RES     
     257 C0           6.9899   -18.4052     2.5519 C0            1 RES     
     258 C1           6.8551   -17.8951     1.1163 C1            1 RES     
     259 C1           5.9603   -18.6101     0.3163 C1            1 RES     
     260 C1           5.8337   -18.2220    -1.0083 C1            1 RES     
     261 S2           6.8748   -16.8839    -1.1759 S2            1 RES     
     262 C1           7.4834   -16.8164     0.4261 C1            1 RES     
     263 H3          12.8282   -22.5329     1.5456 H3            1 RES     
     264 H3          11.8599   -22.7863     3.0465 H3            1 RES     
     265 H3          11.2321   -23.3717     1.4510 H3            1 RES     
     266 H3          11.7176   -20.4277     2.2449 H3            1 RES     
     267 H3          11.0980   -20.9984     0.6455 H3            1 RES     
     268 H3           9.7104   -21.4542     3.3715 H3            1 RES     
     269 H3           9.0895   -21.9915     1.7589 H3            1 RES     
     270 H3           9.0308   -19.5829     1.0089 H3            1 RES     
     271 H3           9.6385   -19.0822     2.6366 H3            1 RES     
     272 H3           7.6015   -20.1341     3.6919 H3            1 RES     
     273 H3           6.9736   -20.5539     2.0632 H3            1 RES     
     274 H3           5.9789   -18.4143     3.0147 H3            1 RES     
     275 H3           7.6048   -17.8308     3.2221 H3            1 RES     
     276 H4           5.4229   -19.3856     0.7821 H4            1 RES     
     277 C0          15.1062   -18.5014     4.4233 C0            1 RES     
     278 C0          14.3139   -17.3697     3.7763 C0            1 RES     
     279 C0          12.9812   -17.1376     4.4992 C0            1 RES     
     280 C0          12.2180   -15.9711     3.8621 C0            1 RES     
     281 C0          10.8732   -15.7268     4.5653 C0            1 RES     
     282 C0          10.1728   -14.4699     4.0118 C0            1 RES     
     283 C1           9.7894   -14.6096     2.5371 C1            1 RES     
     284 C1           8.8357   -15.5935     2.2652 C1            1 RES     
     285 C1           8.4849   -15.7973     0.9397 C1            1 RES     
     286 S2           9.3960   -14.6545     0.0634 S2            1 RES     
     287 C1          10.2312   -13.9213     1.3691 C1            1 RES     
     288 H3          16.0595   -18.6485     3.8730 H3            1 RES     
     289 H3          15.3419   -18.2505     5.4797 H3            1 RES     
     290 H3          14.5260   -19.4480     4.3920 H3            1 RES     
     291 H3          14.9270   -16.4422     3.8112 H3            1 RES     
     292 H3          14.1180   -17.6280     2.7126 H3            1 RES     
     293 H3          13.1798   -16.9006     5.5682 H3            1 RES     
     294 H3          12.3654   -18.0625     4.4451 H3            1 RES     
     295 H3          12.0366   -16.1892     2.7871 H3            1 RES     
     296 H3          12.8436   -15.0538     3.9401 H3            1 RES     
     297 H3          11.0598   -15.5618     5.6500 H3            1 RES     
     298 H3          10.2268   -16.6253     4.4679 H3            1 RES     
     299 H3           9.2453   -14.2808     4.5958 H3            1 RES     
     300 H3          10.8425   -13.6689     4.2720 H3            1 RES     
     301 H4           8.4284   -16.1015     3.0918 H4            1 RES     
     302 C0          18.4696   -13.7540     4.3849 C0            1 RES     
     303 C0          17.5032   -13.0119     3.4670 C0            1 RES     
     304 C0          16.2870   -12.4898     4.2422 C0            1 RES     
     305 C0          15.3511   -11.7076     3.3138 C0            1 RES     
     306 C0          14.1153   -11.1884     4.0658 C0            1 RES     
     307 C0          13.2515   -10.2829     3.1647 C0            1 RES     
     308 C1          12.6667   -11.0310     1.9659 C1            1 RES     
     309 C1          11.7528   -12.0378     2.2860 C1            1 RES     
     310 C1          11.2262   -12.7812     1.2417 C1            1 RES     
     311 S2          11.9184   -12.1145    -0.1658 S2            1 RES     
     312 C1          12.8855   -10.9001     0.5627 C1            1 RES     
     313 H3          19.3322   -14.1258     3.7924 H3            1 RES     
     314 H3          18.8502   -13.0712     5.1745 H3            1 RES     
     315 H3          17.9639   -14.6202     4.8618 H3            1 RES     
     316 H3          18.0436   -12.1609     2.9969 H3            1 RES     
     317 H3          17.1620   -13.7038     2.6661 H3            1 RES     
     318 H3          16.6323   -11.8170     5.0586 H3            1 RES     
     319 H3          15.7395   -13.3476     4.6915 H3            1 RES     
     320 H3          15.0233   -12.3641     2.4783 H3            1 RES     
     321 H3          15.9126   -10.8448     2.8911 H3            1 RES     
     322 H3          14.4519   -10.5796     4.9346 H3            1 RES     
     323 H3          13.5265   -12.0437     4.4613 H3            1 RES     
     324 H3          12.4100    -9.8681     3.7607 H3            1 RES     
     325 H3          13.8919    -9.4446     2.9548 H3            1 RES     
     326 H4          11.5058   -12.1497     3.3028 H4            1 RES     
     327 C0          21.4630    -9.4830     1.8409 C0            1 RES     
     328 C0          20.3227    -9.1962     0.8690 C0            1 RES     
     329 C0          19.1993    -8.4012     1.5461 C0            1 RES     
     330 C0          18.0848    -8.0820     0.5435 C0            1 RES     
     331 C0          16.9409    -7.2962     1.2034 C0            1 RES     
     332 C0          15.8935    -6.8523     0.1629 C0            1 RES     
     333 C1          15.1870    -8.0337    -0.5038 C1            1 RES     
     334 C1          14.4010    -8.8104     0.3519 C1            1 RES     
     335 C1          13.7723    -9.9218    -0.1878 C1            1 RES     
     336 S2          14.1981    -9.9098    -1.8373 S2            1 RES     
     337 C1          15.1812    -8.5048    -1.8511 C1            1 RES     
     338 H3          22.2540   -10.0657     1.3230 H3            1 RES     
     339 H3          21.9055    -8.5313     2.2055 H3            1 RES     
     340 H3          21.0951   -10.0720     2.7077 H3            1 RES     
     341 H3          20.7270    -8.6183     0.0089 H3            1 RES     
     342 H3          19.9178   -10.1608     0.4919 H3            1 RES     
     343 H3          19.6124    -7.4474     1.9438 H3            1 RES     
     344 H3          18.7854    -8.9933     2.3919 H3            1 RES     
     345 H3          17.6834    -9.0286     0.1200 H3            1 RES     
     346 H3          18.5165    -7.4753    -0.2837 H3            1 RES     
     347 H3          17.3597    -6.3787     1.6749 H3            1 RES     
     348 H3          16.4778    -7.9065     2.0081 H3            1 RES     
     349 H3          15.1242    -6.2240     0.6628 H3            1 RES     
     350 H3          16.4368    -6.1797    -0.4775 H3            1 RES     
     351 H4          14.3212    -8.4842     1.3490 H4            1 RES     
     352 C0          23.7279    -6.7009    -2.6645 C0            1 RES     
     353 C0          22.4451    -6.8428    -3.4778 C0            1 RES     
     354 C0          21.3795    -5.8404    -3.0175 C0            1 RES     
     355 C0          20.1151    -5.9670    -3.8750 C0            1 RES     
     356 C0          19.0300    -4.9750    -3.4262 C0            1 RES     
     357 C0          17.8162    -5.0069    -4.3790 C0            1 RES     
     358 C1          17.0972    -6.3574    -4.3711 C1            1 RES     
     359 C1          16.5016    -6.7024    -3.1556 C1            1 RES     
     360 C1          15.8750    -7.9349    -3.0732 C1            1 RES     
     361 S2          16.0452    -8.6168    -4.6264 S2            1 RES     
     362 C1          16.9199    -7.3510    -5.3829 C1            1 RES     
     363 H3          24.4745    -7.4436    -3.0172 H3            1 RES     
     364 H3          24.1534    -5.6826    -2.7927 H3            1 RES     
     365 H3          23.5260    -6.8811    -1.5874 H3            1 RES     
     366 H3          22.6846    -6.6707    -4.5504 H3            1 RES     
     367 H3          22.0553    -7.8775    -3.3608 H3            1 RES     
     368 H3          21.7812    -4.8071    -3.1148 H3            1 RES     
     369 H3          21.1296    -6.0294    -1.9503 H3            1 RES     
     370 H3          19.7193    -7.0031    -3.8025 H3            1 RES     
     371 H3          20.3844    -5.7600    -4.9348 H3            1 RES     
     372 H3          19.4518    -3.9458    -3.4507 H3            1 RES     
     373 H3          18.7285    -5.1914    -2.3799 H3            1 RES     
     374 H3          17.0900    -4.2243    -4.0697 H3            1 RES     
     375 H3          18.2211    -4.6686    -5.3163 H3            1 RES     
     376 H4          16.5507    -5.9880    -2.3839 H4            1 RES     
     377 C0          25.0896    -6.0408    -8.2932 C0            1 RES     
     378 C0          23.7106    -6.5085    -8.7487 C0            1 RES     
     379 C0          22.6615    -5.4032    -8.5742 C0            1 RES     
     380 C0          21.2913    -5.8739    -9.0750 C0            1 RES     
     381 C0          20.2201    -4.7872    -8.8897 C0            1 RES     
     382 C0          18.8773    -5.2088    -9.5179 C0            1 RES     
     383 C1          18.2743    -6.4425    -8.8435 C1            1 RES     
     384 C1          17.8944    -6.2539    -7.5123 C1            1 RES     
     385 C1          17.3796    -7.3439    -6.8303 C1            1 RES     
     386 S2          17.3639    -8.6098    -7.9717 S2            1 RES     
     387 C1          18.0214    -7.7663    -9.3149 C1            1 RES     
     388 H3          25.8226    -6.8649    -8.4235 H3            1 RES     
     389 H3          25.4212    -5.1722    -8.9013 H3            1 RES     
     390 H3          25.0661    -5.7502    -7.2214 H3            1 RES     
     391 H3          23.7717    -6.8041    -9.8192 H3            1 RES     
     392 H3          23.4147    -7.3972    -8.1494 H3            1 RES     
     393 H3          22.9714    -4.5067    -9.1562 H3            1 RES     
     394 H3          22.5928    -5.1268    -7.4989 H3            1 RES     
     395 H3          20.9869    -6.7872    -8.5180 H3            1 RES     
     396 H3          21.3760    -6.1265   -10.1557 H3            1 RES     
     397 H3          20.5577    -3.8581    -9.4021 H3            1 RES     
     398 H3          20.1043    -4.5528    -7.8097 H3            1 RES     
     399 H3          18.1506    -4.3722    -9.4259 H3            1 RES     
     400 H3          19.0935    -5.2733   -10.5682 H3            1 RES     
     401 H4          18.0018    -5.2838    -7.1207 H4            1 RES     
     402 C0          25.5913    -7.8509   -13.7793 C0            1 RES     
     403 C0          24.1909    -8.4564   -13.7593 C0            1 RES     
     404 C0          23.1164    -7.3710   -13.8955 C0            1 RES     
     405 C0          21.7154    -7.9917   -13.9241 C0            1 RES     
     406 C0          20.6298    -6.9089   -14.0348 C0            1 RES     
     407 C0          19.2312    -7.5289   -14.2152 C0            1 RES     
     408 C1          18.7987    -8.3707   -13.0137 C1            1 RES     
     409 C1          18.6179    -7.6526   -11.8302 C1            1 RES     
     410 C1          18.2614    -8.3606   -10.6947 C1            1 RES     
     411 S2          18.1378    -9.9814   -11.2125 S2            1 RES     
     412 C1          18.5435    -9.7650   -12.8675 C1            1 RES     
     413 H3          26.3467    -8.6573   -13.6685 H3            1 RES     
     414 H3          25.7696    -7.3282   -14.7434 H3            1 RES     
     415 H3          25.7138    -7.1293   -12.9438 H3            1 RES     
     416 H3          24.1049    -9.1802   -14.5994 H3            1 RES     
     417 H3          24.0461    -9.0022   -12.8014 H3            1 RES     
     418 H3          23.2804    -6.8082   -14.8414 H3            1 RES     
     419 H3          23.1962    -6.6651   -13.0395 H3            1 RES     
     420 H3          21.5505    -8.5835   -12.9972 H3            1 RES     
     421 H3          21.6476    -8.6744   -14.8004 H3            1 RES     
     422 H3          20.8372    -6.2800   -14.9293 H3            1 RES     
     423 H3          20.6654    -6.2485   -13.1423 H3            1 RES     
     424 H3          18.4850    -6.7169   -14.3570 H3            1 RES     
     425 H3          19.2900    -8.0185   -15.1686 H3            1 RES     
     426 H4          18.7436    -6.6132   -11.8886 H4            1 RES     
     427 C0          25.3830   -11.7782   -18.0173 C0            1 RES     
     428 C0          24.0363   -12.3061   -17.5312 C0            1 RES     
     429 C0          22.8971   -11.3602   -17.9290 C0            1 RES     
     430 C0          21.5402   -11.9167   -17.4842 C0            1 RES     
     431 C0          20.3975   -10.9627   -17.8712 C0            1 RES     
     432 C0          19.0189   -11.5786   -17.5697 C0            1 RES     
     433 C1          18.8004   -11.8262   -16.0819 C1            1 RES     
     434 C1          18.7537   -10.6861   -15.2803 C1            1 RES     
     435 C1          18.6057   -10.8661   -13.9132 C1            1 RES     
     436 S2          18.4969   -12.5530   -13.7048 S2            1 RES     
     437 C1          18.6445   -13.0285   -15.3475 C1            1 RES     
     438 H3          26.1901   -12.4756   -17.7091 H3            1 RES     
     439 H3          25.3868   -11.6997   -19.1258 H3            1 RES     
     440 H3          25.5882   -10.7781   -17.5797 H3            1 RES     
     441 H3          23.8665   -13.3106   -17.9778 H3            1 RES     
     442 H3          24.0647   -12.4076   -16.4242 H3            1 RES     
     443 H3          22.8909   -11.2407   -19.0355 H3            1 RES     
     444 H3          23.0646   -10.3649   -17.4614 H3            1 RES     
     445 H3          21.5401   -12.0668   -16.3822 H3            1 RES     
     446 H3          21.3821   -12.9018   -17.9778 H3            1 RES     
     447 H3          20.4457   -10.7701   -18.9660 H3            1 RES     
     448 H3          20.5258    -9.9900   -17.3500 H3            1 RES     
     449 H3          18.2203   -10.8943   -17.9298 H3            1 RES     
     450 H3          18.9731   -12.4369   -18.2139 H3            1 RES     
     451 H4          18.8154    -9.7655   -15.7792 H4            1 RES     
     452 C0          24.7758   -17.1459   -20.1283 C0            1 RES     
     453 C0          23.5427   -17.4036   -19.2663 C0            1 RES     
     454 C0          22.3018   -16.7232   -19.8571 C0            1 RES     
     455 C0          21.0566   -17.0200   -19.0135 C0            1 RES     
     456 C0          19.8073   -16.3391   -19.6005 C0            1 RES     
     457 C0          18.5301   -16.7340   -18.8368 C0            1 RES     
     458 C1          18.5599   -16.2615   -17.3918 C1            1 RES     
     459 C1          18.5392   -14.8843   -17.1722 C1            1 RES     
     460 C1          18.6219   -14.4553   -15.8490 C1            1 RES     
     461 S2          18.6886   -15.8684   -14.9246 S2            1 RES     
     462 C1          18.6253   -17.0110   -16.1976 C1            1 RES     
     463 H3          25.6589   -17.6443   -19.6753 H3            1 RES     
     464 H3          24.6234   -17.5563   -21.1497 H3            1 RES     
     465 H3          24.9787   -16.0561   -20.1992 H3            1 RES     
     466 H3          23.3769   -18.5019   -19.2045 H3            1 RES     
     467 H3          23.7298   -17.0131   -18.2420 H3            1 RES     
     468 H3          22.1360   -17.1009   -20.8906 H3            1 RES     
     469 H3          22.4700   -15.6238   -19.8997 H3            1 RES     
     470 H3          21.2207   -16.6630   -17.9729 H3            1 RES     
     471 H3          20.8969   -18.1213   -18.9903 H3            1 RES     
     472 H3          19.6835   -16.6674   -20.6568 H3            1 RES     
     473 H3          19.9441   -15.2353   -19.6012 H3            1 RES     
     474 H3          17.6420   -16.2881   -19.3317 H3            1 RES     
     475 H3          18.4379   -17.8001   -18.9675 H3            1 RES     
     476 H4          18.4440   -14.2744   -18.0259 H4            1 RES     
     477 C0          24.2052   -22.8540   -19.8057 C0            1 RES     
     478 C0          23.2255   -22.7242   -18.6427 C0            1 RES     
     479 C0          21.7971   -22.4584   -19.1355 C0            1 RES     
     480 C0          20.8300   -22.3360   -17.9480 C0            1 RES     
     481 C0          19.3823   -22.1381   -18.4190 C0            1 RES     
     482 C0          18.3945   -22.0539   -17.2344 C0            1 RES     
     483 C1          18.5952   -20.8178   -16.3901 C1            1 RES     
     484 C1          18.4559   -19.5283   -16.9126 C1            1 RES     
     485 C1          18.6732   -18.4936   -15.9860 C1            1 RES     
     486 S2          19.0172   -19.2338   -14.5160 S2            1 RES     
     487 C1          18.9162   -20.8324   -15.0384 C1            1 RES     
     488 H3          25.2237   -23.0558   -19.4106 H3            1 RES     
     489 H3          23.9103   -23.6949   -20.4691 H3            1 RES     
     490 H3          24.2325   -21.9133   -20.3954 H3            1 RES     
     491 H3          23.2440   -23.6693   -18.0568 H3            1 RES     
     492 H3          23.5567   -21.8906   -17.9860 H3            1 RES     
     493 H3          21.4776   -23.3007   -19.7886 H3            1 RES     
     494 H3          21.7750   -21.5177   -19.7294 H3            1 RES     
     495 H3          21.1406   -21.4782   -17.3134 H3            1 RES     
     496 H3          20.8798   -23.2682   -17.3439 H3            1 RES     
     497 H3          19.0960   -23.0099   -19.0473 H3            1 RES     
     498 H3          19.3055   -21.2263   -19.0508 H3            1 RES     
     499 H3          17.3606   -22.0201   -17.6445 H3            1 RES     
     500 H3          18.4872   -22.9731   -16.6202 H3            1 RES     
     501 H4          18.1759   -19.4370   -17.9306 H4            1 RES     
     502 H5          19.0643   -21.7165   -14.4320 H5            1 RES     
@<TRIPOS>BOND
       1        1        2 1
       2        1       12 1
       3        1       13 1
       4        1       14 1
       5        2        3 1
       6        2       15 1
       7        2       16 1
       8        3        4 1
       9        3       17 1
      10        3       18 1
      11        4        5 1
      12        4       19 1
      13        4       20 1
      14        5        6 1
      15        5       21 1
      16        5       22 1
      17        6        7 1
      18        6       23 1
      19        6       24 1
      20        7        8 1
      21        7       11 1
      22        8        9 1
      23        8       25 1
      24        9       10 1
      25        9       26 1
      26       10       11 1
      27       11       35 1
      28       27       28 1
      29       27       38 1
      30       27       39 1
      31       27       40 1
      32       28       29 1
      33       28       41 1
      34       28       42 1
      35       29       30 1
      36       29       43 1
      37       29       44 1
      38       30       31 1
      39       30       45 1
      40       30       46 1
      41       31       32 1
      42       31       47 1
      43       31       48 1
      44       32       33 1
      45       32       49 1
      46       32       50 1
      47       33       34 1
      48       33       37 1
      49       34       35 1
      50       34       51 1
      51       35       36 1
      52       36       37 1
      53       37       60 1
      54       52       53 1
      55       52       63 1
      56       52       64 1
      57       52       65 1
      58       53       54 1
      59       53       66 1
      60       53       67 1
      61       54       55 1
      62       54       68 1
      63       54       69 1
      64       55       56 1
      65       55       70 1
      66       55       71 1
      67       56       57 1
      68       56       72 1
      69       56       73 1
      70       57       58 1
      71       57       74 1
      72       57       75 1
      73       58       59 1
      74       58       62 1
      75       59       60 1
      76       59       76 1
      77       60       61 1
      78       61       62 1
      79       62       85 1
      80       77       78 1
      81       77       88 1
      82       77       89 1
      83       77       90 1
      84       78       79 1
      85       78       91 1
      86       78       92 1
      87       79       80 1
      88       79       93 1
      89       79       94 1
      90       80       81 1
      91       80       95 1
      92       80       96 1
      93       81       82 1
      94       81       97 1
      95       81       98 1
      96       82       83 1
      97       82       99 1
      98       82      100 1
      99       83       84 1
     100       83       87 1
     101       84       85 1
     102       84      101 1
     103       85       86 1
     104       86       87 1
     105       87      110 1
     106      102      103 1
     107      102      113 1
     108      102      114 1
     109      102      115 1
     110      103      104 1
     111      103      116 1
     112      103      117 1
     113      104      105 1
     114      104      118 1
     115      104      119 1
     116      105      106 1
     117      105      120 1
     118      105      121 1
     119      106      107 1
     120      106      122 1
     121      106      123 1
     122      107      108 1
     123      107      124 1
     124      107      125 1
     125      108      109 1
     126      108      112 1
     127      109      110 1
     128      109      126 1
     129      110      111 1
     130      111      112 1
     131      112      135 1
     132      127      128 1
     133      127      138 1
     134      127      139 1
     135      127      140 1
     136      128      129 1
     137      128      141 1
     138      128      142 1
     139      129      130 1
     140      129      143 1
     141      129      144 1
     142      130      131 1
     143      130      145 1
     144      130      146 1
     145      131      132 1
     146      131      147 1
     147      131      148 1
     148      132      133 1
     149      132      149 1
     150      132      150 1
     151      133      134 1
     152      133      137 1
     153      134      135 1
     154      134      151 1
     155      135      136 1
     156      136      137 1
     157      137      160 1
     158      152      153 1
     159      152      163 1
     160      152      164 1
     161      152      165 1
     162      153      154 1
     163      153      166 1
     164      153      167 1
     165      154      155 1
     166      154      168 1
     167      154      169 1
     168      155      156 1
     169      155      170 1
     170      155      171 1
     171      156      157 1
     172      156      172 1
     173      156      173 1
     174      157      158 1
     175      157      174 1
     176      157      175 1
     177      158      159 1
     178      158      162 1
     179      159      160 1
     180      159      176 1
     181      160      161 1
     182      161      162 1
     183      162      185 1
     184      177      178 1
     185      177      188 1
     186      177      189 1
     187      177      190 1
     188      178      179 1
     189      178      191 1
     190      178      192 1
     191      179      180 1
     192      179      193 1
     193      179      194 1
     194      180      181 1
     195      180      195 1
     196      180      196 1
     197      181      182 1
     198      181      197 1
     199      181      198 1
     200      182      183 1
     201      182      199 1
     202      182      200 1
     203      183      184 1
     204      183      187 1
     205      184      185 1
     206      184      201 1
     207      185      186 1
     208      186      187 1
     209      187      210 1
     210      202      203 1
     211      202      213 1
     212      202      214 1
     213      202      215 1
     214      203      204 1
     215      203      216 1
     216      203      217 1
     217      204      205 1
     218      204      218 1
     219      204      219 1
     220      205      206 1
     221      205      220 1
     222      205      221 1
     223      206      207 1
     224      206      222 1
     225      206      223 1
     226      207      208 1
     227      207      224 1
     228      207      225 1
     229      208      209 1
     230      208      212 1
     231      209      210 1
     232      209      226 1
     233      210      211 1
     234      211      212 1
     235      212      235 1
     236      227      228 1
     237      227      238 1
     238      227      239 1
     239      227      240 1
     240      228      229 1
     241      228      241 1
     242      228      242 1
     243      229      230 1
     244      229      243 1
     245      229      244 1
     246      230      231 1
     247      230      245 1
     248      230      246 1
     249      231      232 1
     250      231      247 1
     251      231      248 1
     252      232      233 1
     253      232      249 1
     254      232      250 1
     255      233      234 1
     256      233      237 1
     257      234      235 1
     258      234      251 1
     259      235      236 1
     260      236      237 1
     261      237      260 1
     262      252      253 1
     263      252      263 1
     264      252      264 1
     265      252      265 1
     266      253      254 1
     267      253      266 1
     268      253      267 1
     269      254      255 1
     270      254      268 1
     271      254      269 1
     272      255      256 1
     273      255      270 1
     274      255      271 1
     275      256      257 1
     276      256      272 1
     277      256      273 1
     278      257      258 1
     279      257      274 1
     280      257      275 1
     281      258      259 1
     282      258      262 1
     283      259      260 1
     284      259      276 1
     285      260      261 1
     286      261      262 1
     287      262      285 1
     288      277      278 1
     289      277      288 1
     290      277      289 1
     291      277      290 1
     292      278      279 1
     293      278      291 1
     294      278      292 1
     295      279      280 1
     296      279      293 1
     297      279      294 1
     298      280      281 1
     299      280      295 1
     300      280      296 1
     301      281      282 1
     302      281      297 1
     303      281      298 1
     304      282      283 1
     305      282      299 1
     306      282      300 1
     307      283      284 1
     308      283      287 1
     309      284      285 1
     310      284      301 1
     311      285      286 1
     312      286      287 1
     313      287      310 1
     314      302      303 1
     315      302      313 1
     316      302      314 1
     317      302      315 1
     318      303      304 1
     319      303      316 1
     320      303      317 1
     321      304      305 1
     322      304      318 1
     323      304      319 1
     324      305      306 1
     325      305      320 1
     326      305      321 1
     327      306      307 1
     328      306      322 1
     329      306      323 1
     330      307      308 1
     331      307      324 1
     332      307      325 1
     333      308      309 1
     334      308      312 1
     335      309      310 1
     336      309      326 1
     337      310      311 1
     338      311      312 1
     339      312      335 1
     340      327      328 1
     341      327      338 1
     342      327      339 1
     343      327      340 1
     344      328      329 1
     345      328      341 1
     346      328      342 1
     347      329      330 1
     348      329      343 1
     349      329      344 1
     350      330      331 1
     351      330      345 1
     352      330      346 1
     353      331      332 1
     354      331      347 1
     355      331      348 1
     356      332      333 1
     357      332      349 1
     358      332      350 1
     359      333      334 1
     360      333      337 1
     361      334      335 1
     362      334      351 1
     363      335      336 1
     364      336      337 1
     365      337      360 1
     366      352      353 1
     367      352      363 1
     368      352      364 1
     369      352      365 1
     370      353      354 1
     371      353      366 1
     372      353      367 1
     373      354      355 1
     374      354      368 1
     375      354      369 1
     376      355      356 1
     377      355      370 1
     378      355      371 1
     379      356      357 1
     380      356      372 1
     381      356      373 1
     382      357      358 1
     383      357      374 1
     384      357      375 1
     385      358      359 1
     386      358      362 1
     387      359      360 1
     388      359      376 1
     389      360      361 1
     390      361      362 1
     391      362      385 1
     392      377      378 1
     393      377      388 1
     394      377      389 1
     395      377      390 1
     396      378      379 1
     397      378      391 1
     398      378      392 1
     399      379      380 1
     400      379      393 1
     401      379      394 1
     402      380      381 1
     403      380      395 1
     404      380      396 1
     405      381      382 1
     406      381      397 1
     407      381      398 1
     408      382      383 1
     409      382      399 1
     410      382      400 1
     411      383      384 1
     412      383      387 1
     413      384      385 1
     414      384      401 1
     415      385      386 1
     416      386      387 1
     417      387      410 1
     418      402      403 1
     419      402      413 1
     420      402      414 1
     421      402      415 1
     422      403      404 1
     423      403      416 1
     424      403      417 1
     425      404      405 1
     426      404      418 1
     427      404      419 1
     428      405      406 1
     429      405      420 1
     430      405      421 1
     431      406      407 1
     432      406      422 1
     433      406      423 1
     434      407      408 1
     435      407      424 1
     436      407      425 1
     437      408      409 1
     438      408      412 1
     439      409      410 1
     440      409      426 1
     441      410      411 1
     442      411      412 1
     443      412      435 1
     444      427      428 1
     445      427      438 1
     446      427      439 1
     447      427      440 1
     448      428      429 1
     449      428      441 1
     450      428      442 1
     451      429      430 1
     452      429      443 1
     453      429      444 1
     454      430      431 1
     455      430      445 1
     456      430      446 1
     457      431      432 1
     458      431      447 1
     459      431      448 1
     460      432      433 1
     461      432      449 1
     462      432      450 1
     463      433      434 1
     464      433      437 1
     465      434      435 1
     466      434      451 1
     467      435      436 1
     468      436      437 1
     469      437      460 1
     470      452      453 1
     471      452      463 1
     472      452      464 1
     473      452      465 1
     474      453      454 1
     475      453      466 1
     476      453      467 1
     477      454      455 1
     478      454      468 1
     479      454      469 1
     480      455      456 1
     481      455      470 1
     482      455      471 1
     483      456      457 1
     484      456      472 1
     485      456      473 1
     486      457      458 1
     487      457      474 1
     488      457      475 1
     489      458      459 1
     490      458      462 1
     491      459      460 1
     492      459      476 1
     493      460      461 1
     494      461      462 1
     495      462      485 1
     496      477      478 1
     497      477      488 1
     498      477      489 1
     499      477      490 1
     500      478      479 1
     501      478      491 1
     502      478      492 1
     503      479      480 1
     504      479      493 1
     505      479      494 1
     506      480      481 1
     507      480      495 1
     508      480      496 1
     509      481      482 1
     510      481      497 1
     511      481      498 1
     512      482      483 1
     513      482      499 1
     514      482      500 1
     515      483      484 1
     516      483      487 1
     517      484      485 1
     518      484      501 1
     519      485      486 1
     520      486      487 1
     521      487      502 1
@<TRIPOS>SUBSTRUCTURE
       1 RES             1 RESIDUE    0 **** ROOT      0
